<?xml version="1.0" encoding="UTF-8"?>

<!-- generated on 2021-06-20 16:46:09 by Eclipse SUMO netedit Version 1.9.2
<configuration xmlns:xsi="http://www.w3.org/2001/XMLSchema-instance" xsi:noNamespaceSchemaLocation="http://sumo.dlr.de/xsd/netconvertConfiguration.xsd">

    <input>
        <sumo-net-file value="/home/artery/artery/scenarios/warning-service/maps/luxembourg/lust2.net.xml"/>
    </input>

    <output>
        <output-file value="/home/artery/artery/scenarios/warning-service/maps/luxembourg/lust2.net.xml"/>
    </output>

    <processing>
        <geometry.min-radius.fix.railways value="false"/>
        <geometry.max-grade.fix value="false"/>
        <offset.disable-normalization value="true"/>
        <lefthand value="false"/>
    </processing>

    <junctions>
        <no-turnarounds value="true"/>
        <junctions.corner-detail value="0"/>
        <junctions.limit-turn-speed value="-1"/>
        <rectangular-lane-cut value="false"/>
    </junctions>

    <pedestrian>
        <walkingareas value="false"/>
    </pedestrian>

    <report>
        <aggregate-warnings value="5"/>
    </report>

</configuration>
-->

<net version="1.9" xmlns:xsi="http://www.w3.org/2001/XMLSchema-instance" xsi:noNamespaceSchemaLocation="http://sumo.dlr.de/xsd/net_file.xsd">

    <location netOffset="-285448.66,-5492398.13" convBoundary="1788.61,696.16,11380.24,11455.04" origBoundary="6.030969,49.549099,6.216758,49.652578" projParameter="+proj=utm +zone=32 +ellps=WGS84 +datum=WGS84 +units=m +no_defs"/>

    <edge id=":-10230_0" function="internal">
        <lane id=":-10230_0_0" index="0" speed="19.44" length="17.46" shape="6224.17,3309.72 6220.03,3309.51 6215.43,3309.26 6210.84,3309.19 6206.73,3309.51"/>
    </edge>
    <edge id=":-10230_1" function="internal">
        <lane id=":-10230_1_0" index="0" speed="19.44" length="17.47" shape="6223.88,3306.21 6206.73,3309.51"/>
    </edge>
    <edge id=":-104_0" function="internal">
        <lane id=":-104_0_0" index="0" speed="13.89" length="0.61" shape="6997.80,4591.07 6997.22,4591.49"/>
        <lane id=":-104_0_1" index="1" speed="13.89" length="0.61" shape="6995.85,4588.53 6995.44,4588.82"/>
    </edge>
    <edge id=":-104_2" function="internal">
        <lane id=":-104_2_0" index="0" speed="13.89" length="0.20" shape="6991.88,4583.50 6991.97,4583.44"/>
        <lane id=":-104_2_1" index="1" speed="13.89" length="0.20" shape="6993.66,4586.16 6993.91,4585.98"/>
    </edge>
    <edge id=":-10678_0" function="internal">
        <lane id=":-10678_0_0" index="0" speed="36.11" length="7.91" shape="10785.93,7674.87 10786.15,7666.85"/>
        <lane id=":-10678_0_1" index="1" speed="36.11" length="7.91" shape="10789.13,7674.87 10789.35,7666.96"/>
        <lane id=":-10678_0_2" index="2" speed="36.11" length="7.91" shape="10792.33,7674.86 10792.55,7667.07"/>
    </edge>
    <edge id=":-10808_0" function="internal">
        <lane id=":-10808_0_0" index="0" speed="19.44" length="50.90" shape="3875.85,4604.41 3868.89,4610.67 3857.09,4621.62 3845.41,4632.68 3838.81,4639.30"/>
    </edge>
    <edge id=":-10808_1" function="internal">
        <lane id=":-10808_1_0" index="0" speed="19.44" length="51.45" shape="3873.66,4601.46 3838.81,4639.30"/>
    </edge>
    <edge id=":-10890_0" function="internal">
        <lane id=":-10890_0_0" index="0" speed="36.11" length="8.17" shape="3141.74,9054.71 3143.64,9053.13 3144.42,9051.42 3145.20,9049.70 3147.07,9048.05"/>
        <lane id=":-10890_0_1" index="1" speed="36.11" length="8.17" shape="3141.74,9054.71 3148.63,9050.84"/>
        <lane id=":-10890_0_2" index="2" speed="36.11" length="8.17" shape="3143.24,9057.54 3150.20,9053.63"/>
        <lane id=":-10890_0_3" index="3" speed="36.11" length="8.17" shape="3144.74,9060.37 3151.77,9056.42"/>
    </edge>
    <edge id=":-11116_0" function="internal">
        <lane id=":-11116_0_0" index="0" speed="13.89" length="0.10" shape="7062.01,4570.32 7062.01,4570.32"/>
        <lane id=":-11116_0_1" index="1" speed="13.89" length="0.10" shape="7061.21,4567.22 7061.21,4567.22"/>
    </edge>
    <edge id=":-11116_2" function="internal">
        <lane id=":-11116_2_0" index="0" speed="13.89" length="0.10" shape="7059.61,4561.02 7059.61,4561.02"/>
        <lane id=":-11116_2_1" index="1" speed="13.89" length="0.10" shape="7060.41,4564.12 7060.41,4564.12"/>
    </edge>
    <edge id=":-11556_0" function="internal">
        <lane id=":-11556_0_0" index="0" speed="27.77" length="0.29" shape="5367.93,5840.32 5367.59,5840.36"/>
        <lane id=":-11556_0_1" index="1" speed="27.77" length="0.29" shape="5367.53,5837.14 5367.25,5837.18"/>
        <lane id=":-11556_0_2" index="2" speed="27.77" length="0.29" shape="5367.13,5833.97 5366.90,5833.99"/>
    </edge>
    <edge id=":-12084_0" function="internal">
        <lane id=":-12084_0_0" index="0" speed="13.89" length="24.13" shape="6223.17,5116.24 6223.58,5111.67 6226.22,5107.32 6231.07,5103.19 6238.14,5099.28"/>
        <lane id=":-12084_0_1" index="1" speed="13.89" length="20.05" shape="6226.34,5115.77 6226.77,5112.30 6229.10,5108.87 6233.34,5105.50 6239.49,5102.18"/>
    </edge>
    <edge id=":-12084_2" function="internal">
        <lane id=":-12084_2_0" index="0" speed="13.89" length="7.26" shape="6242.18,5107.99 6240.56,5109.02 6239.49,5110.35 6238.97,5111.97 6239.00,5113.89"/>
        <lane id=":-12084_2_1" index="1" speed="13.89" length="11.40" shape="6240.83,5105.09 6238.28,5106.70 6236.60,5108.79 6235.78,5111.34 6235.83,5114.36"/>
        <lane id=":-12084_2_2" index="2" speed="13.89" length="13.60" shape="6240.83,5105.09 6236.95,5107.26 6234.29,5109.61 6232.87,5112.13 6232.67,5114.83"/>
    </edge>
    <edge id=":-12400_0" function="internal">
        <lane id=":-12400_0_0" index="0" speed="36.11" length="7.98" shape="3650.34,6407.84 3651.66,6415.75"/>
        <lane id=":-12400_0_1" index="1" speed="36.11" length="7.98" shape="3647.20,6408.43 3648.50,6416.30"/>
        <lane id=":-12400_0_2" index="2" speed="36.11" length="7.98" shape="3644.05,6409.01 3645.35,6416.84"/>
    </edge>
    <edge id=":-12408_0" function="internal">
        <lane id=":-12408_0_0" index="0" speed="13.89" length="40.99" shape="6361.01,5714.18 6365.11,5725.51 6364.67,5734.88 6359.28,5741.41 6348.55,5744.23"/>
        <lane id=":-12408_0_1" index="1" speed="13.89" length="33.54" shape="6358.58,5716.45 6361.94,5725.72 6361.58,5733.38 6357.17,5738.72 6348.39,5741.04"/>
        <lane id=":-12408_0_2" index="2" speed="13.89" length="26.09" shape="6356.15,5718.72 6358.77,5725.93 6358.48,5731.89 6355.05,5736.04 6348.22,5737.84"/>
    </edge>
    <edge id=":-12408_3" function="internal">
        <lane id=":-12408_3_0" index="0" speed="13.89" length="3.84" shape="6347.74,5728.26 6348.74,5728.04 6349.26,5727.51 6349.31,5726.67 6348.87,5725.52"/>
        <lane id=":-12408_3_1" index="1" speed="13.89" length="11.51" shape="6347.90,5731.45 6350.91,5730.80 6352.48,5729.21 6352.61,5726.70 6351.30,5723.26"/>
        <lane id=":-12408_3_2" index="2" speed="13.89" length="19.19" shape="6348.06,5734.65 6353.08,5733.56 6355.69,5730.92 6355.91,5726.73 6353.72,5720.99"/>
    </edge>
    <edge id=":-12936_0" function="internal">
        <lane id=":-12936_0_0" index="0" speed="36.11" length="8.00" shape="3717.23,6889.92 3715.94,6882.02"/>
        <lane id=":-12936_0_1" index="1" speed="36.11" length="8.00" shape="3720.38,6889.36 3719.09,6881.46"/>
        <lane id=":-12936_0_2" index="2" speed="36.11" length="8.00" shape="3723.53,6888.80 3722.24,6880.90"/>
    </edge>
    <edge id=":-13838_0" function="internal">
        <lane id=":-13838_0_0" index="0" speed="19.44" length="0.10" shape="6819.49,3458.91 6819.49,3458.91"/>
    </edge>
    <edge id=":-13922_0" function="internal">
        <lane id=":-13922_0_0" index="0" speed="36.11" length="47.47" shape="7274.57,3910.13 7282.56,3917.56 7290.44,3925.09 7298.75,3933.50 7308.06,3943.59"/>
        <lane id=":-13922_0_1" index="1" speed="36.11" length="47.47" shape="7274.57,3910.13 7282.20,3917.91 7289.29,3926.20 7296.81,3935.38 7305.76,3945.81"/>
        <lane id=":-13922_0_2" index="2" speed="36.11" length="47.47" shape="7272.19,3912.29 7279.83,3920.07 7286.93,3928.38 7294.46,3937.56 7303.42,3948.00"/>
        <lane id=":-13922_0_3" index="3" speed="36.11" length="47.47" shape="7269.81,3914.44 7277.47,3922.25 7284.60,3930.59 7292.18,3939.81 7301.15,3950.26"/>
    </edge>
    <edge id=":-13998_0" function="internal">
        <lane id=":-13998_0_0" index="0" speed="27.77" length="3.19" shape="4416.50,3859.82 4419.12,3858.01"/>
    </edge>
    <edge id=":-13998_1" function="internal">
        <lane id=":-13998_1_0" index="0" speed="36.11" length="2.85" shape="4418.78,3862.52 4421.06,3860.56"/>
        <lane id=":-13998_1_1" index="1" speed="36.11" length="2.85" shape="4420.84,3864.97 4423.00,3863.10"/>
        <lane id=":-13998_1_2" index="2" speed="36.11" length="2.85" shape="4422.91,3867.41 4424.94,3865.65"/>
    </edge>
    <edge id=":-14456_0" function="internal">
        <lane id=":-14456_0_0" index="0" speed="25.00" length="7.61" shape="7343.58,4060.12 7344.24,4058.83 7344.51,4057.17 7344.39,4055.14 7343.88,4052.74"/>
        <lane id=":-14456_0_1" index="1" speed="25.00" length="10.57" shape="7346.11,4062.08 7347.18,4060.14 7347.67,4057.79 7347.60,4055.05 7346.96,4051.90"/>
    </edge>
    <edge id=":-14456_2" function="internal">
        <lane id=":-14456_2_0" index="0" speed="13.89" length="10.13" shape="7348.64,4064.04 7350.01,4061.41 7350.24,4059.22 7350.51,4057.06 7351.99,4054.52"/>
        <lane id=":-14456_2_1" index="1" speed="13.89" length="10.13" shape="7351.17,4066.00 7352.51,4063.40 7352.72,4061.24 7352.97,4059.11 7354.42,4056.60"/>
        <lane id=":-14456_2_2" index="2" speed="13.89" length="10.13" shape="7353.70,4067.96 7355.01,4065.40 7355.20,4063.26 7355.43,4061.16 7356.84,4058.69"/>
    </edge>
    <edge id=":-14502_0" function="internal">
        <lane id=":-14502_0_0" index="0" speed="27.77" length="2.66" shape="7112.94,3791.28 7110.80,3789.68"/>
    </edge>
    <edge id=":-14502_1" function="internal">
        <lane id=":-14502_1_0" index="0" speed="36.11" length="3.04" shape="7115.06,3788.88 7113.00,3786.89"/>
        <lane id=":-14502_1_1" index="1" speed="36.11" length="3.04" shape="7117.18,3786.49 7114.98,3784.37"/>
        <lane id=":-14502_1_2" index="2" speed="36.11" length="3.04" shape="7119.30,3784.09 7116.97,3781.85"/>
    </edge>
    <edge id=":-15090_0" function="internal">
        <lane id=":-15090_0_0" index="0" speed="13.89" length="0.24" shape="6354.78,5023.81 6354.61,5023.94"/>
        <lane id=":-15090_0_1" index="1" speed="13.89" length="0.24" shape="6352.82,5021.28 6352.62,5021.44"/>
    </edge>
    <edge id=":-15090_2" function="internal">
        <lane id=":-15090_2_0" index="0" speed="13.89" length="0.34" shape="6348.62,5016.44 6348.90,5016.22"/>
        <lane id=":-15090_2_1" index="1" speed="13.89" length="0.34" shape="6350.62,5018.94 6350.86,5018.75"/>
    </edge>
    <edge id=":-15130_0" function="internal">
        <lane id=":-15130_0_0" index="0" speed="36.11" length="7.81" shape="10746.62,7138.46 10749.26,7145.99"/>
        <lane id=":-15130_0_1" index="1" speed="36.11" length="7.81" shape="10743.64,7139.63 10746.22,7147.00"/>
        <lane id=":-15130_0_2" index="2" speed="36.11" length="7.81" shape="10740.66,7140.81 10743.18,7148.02"/>
    </edge>
    <edge id=":-15438_0" function="internal">
        <lane id=":-15438_0_0" index="0" speed="13.89" length="0.27" shape="6248.73,5286.76 6248.70,5286.51"/>
        <lane id=":-15438_0_1" index="1" speed="13.89" length="0.27" shape="6251.90,5286.30 6251.86,5286.04"/>
        <lane id=":-15438_0_2" index="2" speed="13.89" length="0.27" shape="6255.07,5285.85 6255.03,5285.56"/>
    </edge>
    <edge id=":-15438_3" function="internal">
        <lane id=":-15438_3_0" index="0" speed="13.89" length="0.33" shape="6264.52,5284.13 6264.57,5284.47"/>
        <lane id=":-15438_3_1" index="1" speed="13.89" length="0.33" shape="6261.35,5284.61 6261.40,5284.93"/>
        <lane id=":-15438_3_2" index="2" speed="13.89" length="0.33" shape="6258.19,5285.08 6258.23,5285.39"/>
    </edge>
    <edge id=":-15606_0" function="internal">
        <lane id=":-15606_0_0" index="0" speed="27.77" length="0.27" shape="5366.71,5825.01 5366.90,5824.99"/>
        <lane id=":-15606_0_1" index="1" speed="27.77" length="0.27" shape="5367.04,5828.19 5367.30,5828.16"/>
        <lane id=":-15606_0_2" index="2" speed="27.77" length="0.27" shape="5367.36,5831.38 5367.71,5831.34"/>
    </edge>
    <edge id=":-15822_0" function="internal">
        <lane id=":-15822_0_0" index="0" speed="19.44" length="13.53" shape="6800.01,3424.61 6798.01,3421.75 6795.74,3419.45 6793.26,3417.32 6790.61,3414.97"/>
    </edge>
    <edge id=":-15822_1" function="internal">
        <lane id=":-15822_1_0" index="0" speed="19.44" length="13.53" shape="6800.01,3424.61 6793.48,3412.76"/>
    </edge>
    <edge id=":-1644_0" function="internal">
        <lane id=":-1644_0_0" index="0" speed="13.89" length="0.16" shape="6274.78,5449.72 6274.77,5449.63"/>
        <lane id=":-1644_0_1" index="1" speed="13.89" length="0.16" shape="6277.96,5449.39 6277.94,5449.23"/>
        <lane id=":-1644_0_2" index="2" speed="13.89" length="0.16" shape="6281.14,5449.06 6281.12,5448.83"/>
    </edge>
    <edge id=":-1644_3" function="internal">
        <lane id=":-1644_3_0" index="0" speed="13.89" length="0.38" shape="6290.64,5447.62 6290.69,5448.07"/>
        <lane id=":-1644_3_1" index="1" speed="13.89" length="0.38" shape="6287.46,5448.02 6287.51,5448.40"/>
        <lane id=":-1644_3_2" index="2" speed="13.89" length="0.38" shape="6284.29,5448.42 6284.33,5448.73"/>
    </edge>
    <edge id=":-16574_0" function="internal">
        <lane id=":-16574_0_0" index="0" speed="13.89" length="5.82" shape="7455.91,4066.21 7457.00,4068.21 7457.75,4069.58 7458.32,4071.03 7458.83,4073.22"/>
        <lane id=":-16574_0_1" index="1" speed="13.89" length="5.82" shape="7453.06,4067.66 7454.02,4069.41 7454.71,4070.62 7455.22,4071.88 7455.68,4073.81"/>
        <lane id=":-16574_0_2" index="2" speed="13.89" length="5.82" shape="7450.21,4069.11 7451.05,4070.62 7451.66,4071.65 7452.13,4072.73 7452.53,4074.40"/>
        <lane id=":-16574_0_3" index="3" speed="13.89" length="5.82" shape="7447.36,4070.56 7448.08,4071.83 7448.62,4072.69 7449.04,4073.59 7449.39,4074.98"/>
        <lane id=":-16574_0_4" index="4" speed="13.89" length="5.82" shape="7444.51,4072.01 7445.10,4073.04 7445.57,4073.72 7445.94,4074.44 7446.24,4075.57"/>
    </edge>
    <edge id=":-16936_0" function="internal">
        <lane id=":-16936_0_0" index="0" speed="13.89" length="0.13" shape="6635.22,4817.40 6635.15,4817.43"/>
        <lane id=":-16936_0_1" index="1" speed="13.89" length="0.13" shape="6633.91,4814.48 6633.74,4814.56"/>
    </edge>
    <edge id=":-16936_2" function="internal">
        <lane id=":-16936_2_0" index="0" speed="13.89" length="0.35" shape="6630.91,4808.82 6631.28,4808.64"/>
        <lane id=":-16936_2_1" index="1" speed="13.89" length="0.35" shape="6632.32,4811.69 6632.59,4811.56"/>
    </edge>
    <edge id=":-16998_0" function="internal">
        <lane id=":-16998_0_0" index="0" speed="13.89" length="15.06" shape="6798.41,4754.65 6794.04,4754.53 6791.05,4755.17 6788.24,4756.60 6784.37,4758.86"/>
        <lane id=":-16998_0_1" index="1" speed="13.89" length="16.10" shape="6798.41,4754.65 6793.64,4754.04 6790.25,4753.66 6787.04,4754.14 6782.82,4756.06"/>
    </edge>
    <edge id=":-16998_2" function="internal">
        <lane id=":-16998_2_0" index="0" speed="13.89" length="20.37" shape="6799.75,4751.56 6795.01,4750.49 6790.81,4748.21 6787.16,4744.70 6784.05,4739.97"/>
    </edge>
    <edge id=":-16998_3" function="internal">
        <lane id=":-16998_3_0" index="0" speed="13.89" length="9.45" shape="6779.70,4750.47 6781.65,4748.95 6782.63,4747.10 6782.65,4744.91 6781.71,4742.39"/>
        <lane id=":-16998_3_1" index="1" speed="13.89" length="15.40" shape="6781.26,4753.27 6784.28,4750.85 6785.76,4747.82 6785.68,4744.20 6784.05,4739.97"/>
    </edge>
    <edge id=":-17570_0" function="internal">
        <lane id=":-17570_0_0" index="0" speed="27.77" length="3.40" shape="5657.36,3355.39 5660.70,3354.75"/>
    </edge>
    <edge id=":-17570_1" function="internal">
        <lane id=":-17570_1_0" index="0" speed="36.11" length="2.51" shape="5657.82,3358.55 5660.38,3358.26"/>
        <lane id=":-17570_1_1" index="1" speed="36.11" length="2.51" shape="5658.27,3361.72 5660.77,3361.44"/>
        <lane id=":-17570_1_2" index="2" speed="36.11" length="2.51" shape="5658.73,3364.89 5661.15,3364.61"/>
    </edge>
    <edge id=":-17730_0" function="internal">
        <lane id=":-17730_0_0" index="0" speed="13.89" length="0.48" shape="6526.81,4877.63 6526.75,4877.67 6526.71,4877.70 6526.68,4877.73 6526.62,4877.78"/>
        <lane id=":-17730_0_1" index="1" speed="13.89" length="0.48" shape="6524.91,4875.05 6524.74,4875.18 6524.62,4875.27 6524.51,4875.37 6524.36,4875.52"/>
    </edge>
    <edge id=":-17730_2" function="internal">
        <lane id=":-17730_2_0" index="0" speed="13.89" length="1.45" shape="6519.83,4871.00 6520.19,4870.65 6520.44,4870.41 6520.71,4870.20 6521.11,4869.90"/>
        <lane id=":-17730_2_1" index="1" speed="13.89" length="1.45" shape="6522.09,4873.26 6522.35,4873.01 6522.53,4872.84 6522.72,4872.69 6523.01,4872.47"/>
    </edge>
    <edge id=":-18412_0" function="internal">
        <lane id=":-18412_0_0" index="0" speed="36.11" length="8.09" shape="3675.01,8645.00 3673.92,8647.31 3673.85,8649.24 3673.76,8651.14 3672.56,8653.37"/>
        <lane id=":-18412_0_1" index="1" speed="36.11" length="8.09" shape="3675.01,8645.00 3670.11,8651.30"/>
        <lane id=":-18412_0_2" index="2" speed="36.11" length="8.09" shape="3672.46,8643.07 3667.67,8649.24"/>
        <lane id=":-18412_0_3" index="3" speed="36.11" length="8.09" shape="3669.90,8641.15 3665.22,8647.17"/>
    </edge>
    <edge id=":-18790_0" function="internal">
        <lane id=":-18790_0_0" index="0" speed="27.77" length="3.20" shape="5662.02,3378.87 5661.07,3378.89 5660.42,3378.93 5659.78,3379.00 5658.84,3379.14"/>
    </edge>
    <edge id=":-18790_1" function="internal">
        <lane id=":-18790_1_0" index="0" speed="36.11" length="7.84" shape="5666.04,3374.87 5658.37,3375.97"/>
        <lane id=":-18790_1_1" index="1" speed="36.11" length="7.84" shape="5665.65,3371.69 5657.89,3372.81"/>
        <lane id=":-18790_1_2" index="2" speed="36.11" length="7.84" shape="5665.27,3368.51 5657.42,3369.64"/>
    </edge>
    <edge id=":-18974_0" function="internal">
        <lane id=":-18974_0_0" index="0" speed="27.77" length="3.08" shape="3709.73,4893.72 3709.35,4894.55 3709.11,4895.13 3708.89,4895.72 3708.60,4896.58"/>
    </edge>
    <edge id=":-18974_1" function="internal">
        <lane id=":-18974_1_0" index="0" speed="36.11" length="8.71" shape="3708.37,4887.40 3705.57,4895.56"/>
        <lane id=":-18974_1_1" index="1" speed="36.11" length="8.71" shape="3705.37,4886.30 3702.54,4894.53"/>
        <lane id=":-18974_1_2" index="2" speed="36.11" length="8.71" shape="3702.36,4885.19 3699.51,4893.50"/>
    </edge>
    <edge id=":-19020_0" function="internal">
        <lane id=":-19020_0_0" index="0" speed="19.44" length="26.66" shape="4221.98,3994.98 4227.44,3993.84 4235.06,3992.24 4242.60,3990.43 4247.84,3988.66"/>
    </edge>
    <edge id=":-19020_1" function="internal">
        <lane id=":-19020_1_0" index="0" speed="19.44" length="26.67" shape="4222.96,3998.24 4228.19,3996.31 4235.48,3993.62 4242.72,3990.85 4247.84,3988.66"/>
    </edge>
    <edge id=":-19164_0" function="internal">
        <lane id=":-19164_0_0" index="0" speed="19.44" length="15.50" shape="4093.36,4663.62 4092.88,4667.44 4092.34,4671.36 4092.08,4675.26 4092.42,4679.03"/>
    </edge>
    <edge id=":-19164_1" function="internal">
        <lane id=":-19164_1_0" index="0" speed="19.44" length="15.50" shape="4089.81,4663.75 4092.42,4679.03"/>
    </edge>
    <edge id=":-19346_0" function="internal">
        <lane id=":-19346_0_0" index="0" speed="13.89" length="0.20" shape="6311.78,5635.69 6311.74,5635.56"/>
        <lane id=":-19346_0_1" index="1" speed="13.89" length="0.20" shape="6314.85,5634.78 6314.79,5634.59"/>
        <lane id=":-19346_0_2" index="2" speed="13.89" length="0.20" shape="6317.92,5633.87 6317.84,5633.63"/>
    </edge>
    <edge id=":-19346_3" function="internal">
        <lane id=":-19346_3_0" index="0" speed="13.89" length="0.37" shape="6327.00,5630.73 6327.12,5631.14"/>
        <lane id=":-19346_3_1" index="1" speed="13.89" length="0.37" shape="6323.94,5631.70 6324.05,5632.05"/>
        <lane id=":-19346_3_2" index="2" speed="13.89" length="0.37" shape="6320.89,5632.66 6320.98,5632.96"/>
    </edge>
    <edge id=":-19644_0" function="internal">
        <lane id=":-19644_0_0" index="0" speed="36.11" length="8.01" shape="10732.11,7153.28 10730.89,7151.24 10729.35,7150.27 10727.77,7149.32 10726.41,7147.33"/>
        <lane id=":-19644_0_1" index="1" speed="36.11" length="8.01" shape="10732.11,7153.28 10729.38,7146.13"/>
        <lane id=":-19644_0_2" index="2" speed="36.11" length="8.01" shape="10735.15,7152.27 10732.35,7144.93"/>
        <lane id=":-19644_0_3" index="3" speed="36.11" length="8.01" shape="10738.19,7151.26 10735.31,7143.74"/>
    </edge>
    <edge id=":-1974_0" function="internal">
        <lane id=":-1974_0_0" index="0" speed="16.66" length="2.66" shape="5760.78,5790.88 5758.30,5791.18"/>
        <lane id=":-1974_0_1" index="1" speed="16.66" length="2.66" shape="5760.54,5787.68 5757.90,5788.01"/>
        <lane id=":-1974_0_2" index="2" speed="16.66" length="2.66" shape="5760.30,5784.49 5757.50,5784.84"/>
    </edge>
    <edge id=":-1974_3" function="internal">
        <lane id=":-1974_3_0" index="0" speed="16.66" length="3.16" shape="5756.27,5775.04 5757.25,5774.95 5757.92,5774.95 5758.60,5774.96 5759.59,5774.92"/>
        <lane id=":-1974_3_1" index="1" speed="16.66" length="3.16" shape="5756.67,5778.21 5757.60,5778.13 5758.24,5778.13 5758.89,5778.15 5759.82,5778.11"/>
        <lane id=":-1974_3_2" index="2" speed="16.66" length="3.16" shape="5757.07,5781.39 5757.95,5781.31 5758.56,5781.31 5759.17,5781.34 5760.06,5781.30"/>
    </edge>
    <edge id=":-20048_0" function="internal">
        <lane id=":-20048_0_0" index="0" speed="27.77" length="18.31" shape="7290.27,2958.40 7284.37,2959.63 7279.71,2960.51 7275.94,2961.53 7272.70,2963.18"/>
    </edge>
    <edge id=":-20048_1" function="internal">
        <lane id=":-20048_1_0" index="0" speed="36.11" length="18.86" shape="7289.54,2955.29 7271.28,2959.76"/>
        <lane id=":-20048_1_1" index="1" speed="36.11" length="18.86" shape="7288.82,2952.17 7270.50,2956.66"/>
        <lane id=":-20048_1_2" index="2" speed="36.11" length="18.86" shape="7288.09,2949.06 7269.72,2953.55"/>
    </edge>
    <edge id=":-20064_0" function="internal">
        <lane id=":-20064_0_0" index="0" speed="27.77" length="3.36" shape="4031.54,3626.30 4031.87,3622.95"/>
    </edge>
    <edge id=":-20064_1" function="internal">
        <lane id=":-20064_1_0" index="0" speed="36.11" length="2.24" shape="4035.03,3625.41 4035.07,3623.13"/>
        <lane id=":-20064_1_1" index="1" speed="36.11" length="2.24" shape="4038.23,3625.54 4038.26,3623.30"/>
        <lane id=":-20064_1_2" index="2" speed="36.11" length="2.24" shape="4041.42,3625.67 4041.46,3623.48"/>
    </edge>
    <edge id=":-20236_0" function="internal">
        <lane id=":-20236_0_0" index="0" speed="27.77" length="33.94" shape="6675.22,2659.51 6684.96,2626.99"/>
    </edge>
    <edge id=":-20236_1" function="internal">
        <lane id=":-20236_1_0" index="0" speed="36.11" length="34.62" shape="6681.24,2661.09 6688.13,2627.49"/>
        <lane id=":-20236_1_1" index="1" speed="36.11" length="34.62" shape="6684.34,2661.90 6691.30,2628.00"/>
        <lane id=":-20236_1_2" index="2" speed="36.11" length="34.62" shape="6687.44,2662.72 6694.47,2628.50"/>
    </edge>
    <edge id=":-2036_0" function="internal">
        <lane id=":-2036_0_0" index="0" speed="36.11" length="7.31" shape="3899.24,7850.02 3899.53,7852.28 3899.67,7853.83 3899.72,7855.39 3899.78,7857.66"/>
        <lane id=":-2036_0_1" index="1" speed="36.11" length="7.31" shape="3896.07,7850.46 3896.34,7852.61 3896.47,7854.09 3896.53,7855.58 3896.58,7857.75"/>
        <lane id=":-2036_0_2" index="2" speed="36.11" length="7.31" shape="3892.90,7850.90 3893.16,7852.95 3893.28,7854.36 3893.33,7855.77 3893.38,7857.84"/>
    </edge>
    <edge id=":-21774_0" function="internal">
        <lane id=":-21774_0_0" index="0" speed="13.89" length="15.25" shape="7394.05,4156.22 7388.41,4156.20 7384.25,4156.88 7381.57,4158.25 7380.38,4160.32"/>
        <lane id=":-21774_0_1" index="1" speed="13.89" length="19.82" shape="7394.23,4153.03 7387.33,4153.11 7382.20,4154.25 7378.83,4156.45 7377.23,4159.72"/>
    </edge>
    <edge id=":-21774_2" function="internal">
        <lane id=":-21774_2_0" index="0" speed="13.89" length="23.84" shape="7394.42,4149.83 7387.17,4148.88 7382.44,4147.07 7377.94,4144.38 7371.39,4140.76"/>
        <lane id=":-21774_2_1" index="1" speed="13.89" length="23.84" shape="7394.60,4146.64 7387.73,4145.71 7383.26,4143.95 7379.01,4141.34 7372.80,4137.89"/>
        <lane id=":-21774_2_2" index="2" speed="13.89" length="23.84" shape="7394.79,4143.44 7388.29,4142.54 7384.08,4140.82 7380.07,4138.30 7374.20,4135.01"/>
    </edge>
    <edge id=":-21774_5" function="internal">
        <lane id=":-21774_5_0" index="0" speed="13.89" length="13.03" shape="7370.94,4158.53 7371.50,4154.05 7371.29,4150.56 7370.32,4148.04 7368.57,4146.51"/>
        <lane id=":-21774_5_1" index="1" speed="13.89" length="17.19" shape="7374.09,4159.13 7374.71,4153.53 7374.23,4149.09 7372.65,4145.79 7369.98,4143.64"/>
        <lane id=":-21774_5_2" index="2" speed="13.89" length="19.60" shape="7374.09,4159.13 7375.03,4152.13 7374.89,4146.74 7373.68,4142.95 7371.39,4140.76"/>
    </edge>
    <edge id=":-21778_0" function="internal">
        <lane id=":-21778_0_0" index="0" speed="36.11" length="8.07" shape="5011.07,5834.22 5008.52,5834.30 5006.77,5835.13 5005.04,5835.91 5002.51,5835.86"/>
        <lane id=":-21778_0_1" index="1" speed="36.11" length="8.07" shape="5011.07,5834.22 5003.24,5832.74"/>
        <lane id=":-21778_0_2" index="2" speed="36.11" length="8.07" shape="5011.62,5831.07 5003.96,5829.62"/>
        <lane id=":-21778_0_3" index="3" speed="36.11" length="8.07" shape="5012.16,5827.92 5004.69,5826.51"/>
    </edge>
    <edge id=":-22094_0" function="internal">
        <lane id=":-22094_0_0" index="0" speed="27.77" length="3.20" shape="6748.28,3259.41 6748.51,3260.33 6748.70,3260.96 6748.92,3261.57 6749.26,3262.45"/>
    </edge>
    <edge id=":-22094_1" function="internal">
        <lane id=":-22094_1_0" index="0" speed="36.11" length="7.18" shape="6743.72,3257.05 6746.29,3263.64"/>
        <lane id=":-22094_1_1" index="1" speed="36.11" length="7.18" shape="6740.71,3258.13 6743.32,3264.82"/>
        <lane id=":-22094_1_2" index="2" speed="36.11" length="7.18" shape="6737.70,3259.21 6740.34,3266.00"/>
    </edge>
    <edge id=":-22284_0" function="internal">
        <lane id=":-22284_0_0" index="0" speed="27.77" length="9.75" shape="6839.99,3435.18 6841.06,3437.87 6841.75,3439.75 6842.61,3441.53 6844.23,3443.90"/>
    </edge>
    <edge id=":-22284_1" function="internal">
        <lane id=":-22284_1_0" index="0" speed="36.11" length="10.16" shape="6837.10,3437.05 6841.67,3445.83"/>
        <lane id=":-22284_1_1" index="1" speed="36.11" length="10.16" shape="6834.39,3438.75 6839.12,3447.75"/>
        <lane id=":-22284_1_2" index="2" speed="36.11" length="10.16" shape="6831.67,3440.45 6836.56,3449.67"/>
    </edge>
    <edge id=":-23274_0" function="internal">
        <lane id=":-23274_0_0" index="0" speed="19.44" length="0.10" shape="6906.08,3582.72 6906.08,3582.72"/>
    </edge>
    <edge id=":-23434_0" function="internal">
        <lane id=":-23434_0_0" index="0" speed="36.11" length="7.50" shape="11190.55,9713.16 11189.16,9711.31 11188.25,9710.01 11187.40,9708.67 11186.17,9706.71"/>
        <lane id=":-23434_0_1" index="1" speed="36.11" length="7.50" shape="11193.09,9711.21 11191.75,9709.43 11190.88,9708.18 11190.06,9706.89 11188.88,9705.00"/>
        <lane id=":-23434_0_2" index="2" speed="36.11" length="7.50" shape="11195.62,9709.26 11194.34,9707.55 11193.50,9706.35 11192.72,9705.11 11191.59,9703.30"/>
    </edge>
    <edge id=":-24300_0" function="internal">
        <lane id=":-24300_0_0" index="0" speed="36.11" length="19.76" shape="7225.13,3888.45 7211.05,3874.86"/>
        <lane id=":-24300_0_1" index="1" speed="36.11" length="19.76" shape="7227.45,3886.25 7213.23,3872.52"/>
        <lane id=":-24300_0_2" index="2" speed="36.11" length="19.76" shape="7229.76,3884.04 7215.41,3870.18"/>
    </edge>
    <edge id=":-24330_0" function="internal">
        <lane id=":-24330_0_0" index="0" speed="36.11" length="7.98" shape="3879.97,7838.43 3879.30,7836.16 3878.05,7834.85 3876.75,7833.55 3875.93,7831.30"/>
        <lane id=":-24330_0_1" index="1" speed="36.11" length="7.98" shape="3879.97,7838.43 3879.10,7830.86"/>
        <lane id=":-24330_0_2" index="2" speed="36.11" length="7.98" shape="3883.17,7838.21 3882.27,7830.43"/>
        <lane id=":-24330_0_3" index="3" speed="36.11" length="7.98" shape="3886.36,7837.98 3885.44,7829.99"/>
    </edge>
    <edge id=":-24338_0" function="internal">
        <lane id=":-24338_0_0" index="0" speed="27.77" length="2.66" shape="6928.49,3081.52 6926.09,3082.68"/>
    </edge>
    <edge id=":-24338_1" function="internal">
        <lane id=":-24338_1_0" index="0" speed="36.11" length="3.02" shape="6927.33,3078.53 6924.64,3079.46"/>
        <lane id=":-24338_1_1" index="1" speed="36.11" length="3.02" shape="6926.18,3075.55 6923.32,3076.54"/>
        <lane id=":-24338_1_2" index="2" speed="36.11" length="3.02" shape="6925.02,3072.57 6922.00,3073.62"/>
    </edge>